//Input feeder information for masters thesis.
//Started on 10/21/09. This version created 26-Mar-2010 18:46:43.

clock {
     timezone PST+8PDT;
     starttime '2000-01-01 00:00:00';
     stoptime '2000-01-03 00:00:00';
}

#set minimum_timestep=60;

module assert;
module tape;

module residential {
     implicit_enduses NONE;
};
module climate;
module powerflow {
     //solver_method NR;
    /// NR_iteration_limit 50;
};

module market;
module generators;


     
      
     schedule lighting {
     	Weekday_Summer {
     	*  0 * 4-9 1-5 0.380; *  1 * 4-9 1-5 0.340; *  2 * 4-9 1-5 0.320; *  3 * 4-9 1-5 0.320;
     	*  4 * 4-9 1-5 0.320; *  5 * 4-9 1-5 0.350; *  6 * 4-9 1-5 0.410; *  7 * 4-9 1-5 0.450;
     	*  8 * 4-9 1-5 0.450; *  9 * 4-9 1-5 0.450; * 10 * 4-9 1-5 0.450; * 11 * 4-9 1-5 0.450;
     	* 12 * 4-9 1-5 0.450; * 13 * 4-9 1-5 0.440; * 14 * 4-9 1-5 0.440; * 15 * 4-9 1-5 0.450;
     	* 16 * 4-9 1-5 0.470; * 17 * 4-9 1-5 0.510; * 18 * 4-9 1-5 0.540; * 19 * 4-9 1-5 0.560;
     	* 20 * 4-9 1-5 0.630; * 21 * 4-9 1-5 0.710; * 22 * 4-9 1-5 0.650; * 23 * 4-9 1-5 0.490;
     	}
     	Weekend_Summer {
     	*  0 * 4-9 6-0 0.410; *  1 * 4-9 6-0 0.360; *  2 * 4-9 6-0 0.330; *  3 * 4-9 6-0 0.320;
     	*  4 * 4-9 6-0 0.320; *  5 * 4-9 6-0 0.320; *  6 * 4-9 6-0 0.340; *  7 * 4-9 6-0 0.390;
     	*  8 * 4-9 6-0 0.440; *  9 * 4-9 6-0 0.470; * 10 * 4-9 6-0 0.470; * 11 * 4-9 6-0 0.470;
     	* 12 * 4-9 6-0 0.470; * 13 * 4-9 6-0 0.460; * 14 * 4-9 6-0 0.460; * 15 * 4-9 6-0 0.460;
     	* 16 * 4-9 6-0 0.470; * 17 * 4-9 6-0 0.490; * 18 * 4-9 6-0 0.520; * 19 * 4-9 6-0 0.540;
     	* 20 * 4-9 6-0 0.610; * 21 * 4-9 6-0 0.680; * 22 * 4-9 6-0 0.630; * 23 * 4-9 6-0 0.500;
     	}
     	Weekday_Winter {
     	*  0 * 10-3 1-5 0.4200; *  1 * 10-3 1-5 0.3800; *  2 * 10-3 1-5 0.3700; *  3 * 10-3 1-5 0.3600;
     	*  4 * 10-3 1-5 0.3700; *  5 * 10-3 1-5 0.4200; *  6 * 10-3 1-5 0.5800; *  7 * 10-3 1-5 0.6900;
     	*  8 * 10-3 1-5 0.6100; *  9 * 10-3 1-5 0.5600; * 10 * 10-3 1-5 0.5300; * 11 * 10-3 1-5 0.5100;
     	* 12 * 10-3 1-5 0.4900; * 13 * 10-3 1-5 0.4700; * 14 * 10-3 1-5 0.4700; * 15 * 10-3 1-5 0.5100;
     	* 16 * 10-3 1-5 0.6300; * 17 * 10-3 1-5 0.8400; * 18 * 10-3 1-5 0.9700; * 19 * 10-3 1-5 0.9800;
     	* 20 * 10-3 1-5 0.9600; * 21 * 10-3 1-5 0.8900; * 22 * 10-3 1-5 0.7400; * 23 * 10-3 1-5 0.5500;
     	}
     	Weekend_Winter {
     	*  0 * 10-3 6-0 0.4900; *  1 * 10-3 6-0 0.4200; *  2 * 10-3 6-0 0.3800; *  3 * 10-3 6-0 0.3800;
     	*  4 * 10-3 6-0 0.3700; *  5 * 10-3 6-0 0.3800; *  6 * 10-3 6-0 0.4300; *  7 * 10-3 6-0 0.5100;
     	*  8 * 10-3 6-0 0.6000; *  9 * 10-3 6-0 0.6300; * 10 * 10-3 6-0 0.6300; * 11 * 10-3 6-0 0.6100;
     	* 12 * 10-3 6-0 0.6000; * 13 * 10-3 6-0 0.5900; * 14 * 10-3 6-0 0.5900; * 15 * 10-3 6-0 0.6100;
     	* 16 * 10-3 6-0 0.7100; * 17 * 10-3 6-0 0.8800; * 18 * 10-3 6-0 0.9600; * 19 * 10-3 6-0 0.9700;
     	* 20 * 10-3 6-0 0.9400; * 21 * 10-3 6-0 0.8800; * 22 * 10-3 6-0 0.7600; * 23 * 10-3 6-0 0.5800;
     	}
     }
     schedule my_price {
     	* 0-9 * * * 1;
     	* 10-21 * * * 2;
     	* 22-23 * * * 1;
     }
     
     
     object triplex_meter {
     	name triplex_2;
     	nominal_voltage 120;
     	phases AS;
     	
    
object inverter {
    name batteryInverter1;
    phases AS;
    four_quadrant_control_mode CONSTANT_PF;
    generator_status ONLINE;
    inverter_type FOUR_QUADRANT;
    power_factor 1.0;
    V_In 260.0+0.0j;//These two inputs are what determines how much power is demanded from the battery object. These need to be user defined when the battery is a child of the inverter.
    I_In 15.0+0.0j; //These two inputs are what determines how much power is demanded from the battery object. These need to be user defined when the battery is a child of the inverter.
    inverter_efficiency 0.95;
    rated_power 3900;

    object battery {
        name battery_1;
        nominal_voltage 260; //needs to be used with internal battery model
        rated_power 3900; //needs to be used with internal battery model
        battery_capacity 23400; //Wh            -- 6 hours of maximum; needs to be used with internal battery model
        state_of_charge 1; //needs to be used with internal battery model
        round_trip_efficiency 1; //needs to be used with internal battery model
        use_internal_battery_model TRUE;
        battery_type LEAD_ACID;
        // scheduled_power battery_schedule.value * 1;
        // scheduled_power 0;

         object recorder {
             property Energy,VA_Out; // Energy | power_transferred
             file "battery.csv";
             interval 900;
         };
    };
};
object recorder {
    property measured_reactive_power,measured_real_power,measured_power; // measured_real_power | measured_real_energy
    file "battery1_real_power.csv";
    interval 900;
};
}